#======================================================================

# CRYSTAL DATA

#----------------------------------------------------------------------

data_VESTA_phase_1


_chemical_name_common                  'XCrySDen XSF file'
_cell_length_a                         5.38702
_cell_length_b                         5.38702
_cell_length_c                         5.38702
_cell_angle_alpha                      90
_cell_angle_beta                       90
_cell_angle_gamma                      90
_space_group_name_H-M_alt              'P 1'
_space_group_IT_number                 1

loop_
_space_group_symop_operation_xyz
   'x, y, z'

loop_
   _atom_site_label
   _atom_site_occupancy
   _atom_site_fract_x
   _atom_site_fract_y
   _atom_site_fract_z
   _atom_site_adp_type
   _atom_site_B_iso_or_equiv
   _atom_site_type_symbol
   Si1        1.0    -0.125000     -0.125000     -0.125000     Biso  1.000000 Si
   Si2        1.0     0.375000      0.375000     -0.125000     Biso  1.000000 Si
   Si3        1.0     0.375000     -0.125000      0.375000     Biso  1.000000 Si
   Si4        1.0    -0.125000      0.375000      0.375000     Biso  1.000000 Si
   Si5        1.0     0.125000      0.125000      0.125000     Biso  1.000000 Si
   Si6        1.0     0.625000      0.625000      0.125000     Biso  1.000000 Si
   Si7        1.0     0.625000      0.125000      0.625000     Biso  1.000000 Si
   Si8        1.0     0.125000      0.625000      0.625000     Biso  1.000000 Si
