#======================================================================

# CRYSTAL DATA

#----------------------------------------------------------------------

data_VESTA_phase_1


_chemical_name_common                  'XCrySDen XSF file'
_cell_length_a                         8.00000
_cell_length_b                         8.00000
_cell_length_c                         8.00000
_cell_angle_alpha                      90
_cell_angle_beta                       90
_cell_angle_gamma                      90
_space_group_name_H-M_alt              'P 1'
_space_group_IT_number                 1

loop_
_space_group_symop_operation_xyz
   'x, y, z'
   'x, y, z+1/2'
   'x, y+1/2, z'
   'x, y+1/2, z+1/2'
   'x+1/2, y, z'
   'x+1/2, y, z+1/2'
   'x+1/2, y+1/2, z'
   'x+1/2, y+1/2, z+1/2'

loop_
   _atom_site_label
   _atom_site_occupancy
   _atom_site_fract_x
   _atom_site_fract_y
   _atom_site_fract_z
   _atom_site_adp_type
   _atom_site_B_iso_or_equiv
   _atom_site_type_symbol
   Ti1        1.0     0.250000      0.250000      0.250000     Biso  1.000000 Ti
   Ba1        1.0     0.000000      0.000000      0.000000     Biso  1.000000 Ba
   O1         1.0     0.250000      0.250000      0.000000     Biso  1.000000 O
   O2         1.0     0.250000      0.000000      0.250000     Biso  1.000000 O
   O3         1.0     0.000000      0.250000      0.250000     Biso  1.000000 O
