#======================================================================

# CRYSTAL DATA

#----------------------------------------------------------------------

data_VESTA_phase_1


_chemical_name_common                  'na cl'
_cell_length_a                         10.90660
_cell_length_b                         10.90660
_cell_length_c                         10.90660
_cell_angle_alpha                      90
_cell_angle_beta                       90
_cell_angle_gamma                      90
_space_group_name_H-M_alt              'P 1'
_space_group_IT_number                 1

loop_
_space_group_symop_operation_xyz
   'x, y, z'

loop_
   _atom_site_label
   _atom_site_occupancy
   _atom_site_fract_x
   _atom_site_fract_y
   _atom_site_fract_z
   _atom_site_adp_type
   _atom_site_U_iso_or_equiv
   _atom_site_type_symbol
   Na         1.0     0.000000      0.000000      0.000000     Uiso  0.018490 Na
   Na         1.0     0.000000      0.250000      0.250000     Uiso  0.018490 Na
   Na         1.0     0.250000      0.000000      0.250000     Uiso  0.018490 Na
   Na         1.0     0.250000      0.250000      0.000000     Uiso  0.018490 Na
   Na         1.0     0.000000      0.000000      0.500000     Uiso  0.018490 Na
   Na         1.0     0.500000      0.000000      0.000000     Uiso  0.018490 Na
   Na         1.0     0.000000      0.500000      0.000000     Uiso  0.018490 Na
   Na         1.0     0.000000      0.250000      0.750000     Uiso  0.018490 Na
   Na         1.0     0.500000      0.250000      0.250000     Uiso  0.018490 Na
   Na         1.0     0.000000      0.750000      0.250000     Uiso  0.018490 Na
   Na         1.0     0.250000      0.000000      0.750000     Uiso  0.018490 Na
   Na         1.0     0.750000      0.000000      0.250000     Uiso  0.018490 Na
   Na         1.0     0.250000      0.500000      0.250000     Uiso  0.018490 Na
   Na         1.0     0.250000      0.250000      0.500000     Uiso  0.018490 Na
   Na         1.0     0.750000      0.250000      0.000000     Uiso  0.018490 Na
   Na         1.0     0.250000      0.750000      0.000000     Uiso  0.018490 Na
   Na         1.0     0.000000      0.500000      0.500000     Uiso  0.018490 Na
   Na         1.0     0.500000      0.000000      0.500000     Uiso  0.018490 Na
   Na         1.0     0.500000      0.500000      0.000000     Uiso  0.018490 Na
   Na         1.0     0.000000      0.750000      0.750000     Uiso  0.018490 Na
   Na         1.0     0.500000      0.250000      0.750000     Uiso  0.018490 Na
   Na         1.0     0.500000      0.750000      0.250000     Uiso  0.018490 Na
   Na         1.0     0.250000      0.500000      0.750000     Uiso  0.018490 Na
   Na         1.0     0.750000      0.000000      0.750000     Uiso  0.018490 Na
   Na         1.0     0.750000      0.500000      0.250000     Uiso  0.018490 Na
   Na         1.0     0.250000      0.750000      0.500000     Uiso  0.018490 Na
   Na         1.0     0.750000      0.250000      0.500000     Uiso  0.018490 Na
   Na         1.0     0.750000      0.750000      0.000000     Uiso  0.018490 Na
   Na         1.0     0.500000      0.500000      0.500000     Uiso  0.018490 Na
   Na         1.0     0.500000      0.750000      0.750000     Uiso  0.018490 Na
   Na         1.0     0.750000      0.500000      0.750000     Uiso  0.018490 Na
   Na         1.0     0.750000      0.750000      0.500000     Uiso  0.018490 Na
   Cl         1.0     0.250000      0.250000      0.250000     Uiso  0.014940 Cl
   Cl         1.0     0.750000      0.750000      0.750000     Uiso  0.014940 Cl
   Cl         1.0     0.750000      0.750000      0.250000     Uiso  0.014940 Cl
   Cl         1.0     0.250000      0.250000      0.750000     Uiso  0.014940 Cl
   Cl         1.0     0.750000      0.250000      0.750000     Uiso  0.014940 Cl
   Cl         1.0     0.250000      0.750000      0.250000     Uiso  0.014940 Cl
   Cl         1.0     0.250000      0.750000      0.750000     Uiso  0.014940 Cl
   Cl         1.0     0.750000      0.250000      0.250000     Uiso  0.014940 Cl
   Cl         1.0     0.250000      0.500000      0.500000     Uiso  0.014940 Cl
   Cl         1.0     0.750000      0.000000      0.000000     Uiso  0.014940 Cl
   Cl         1.0     0.750000      0.000000      0.500000     Uiso  0.014940 Cl
   Cl         1.0     0.250000      0.500000      0.000000     Uiso  0.014940 Cl
   Cl         1.0     0.750000      0.500000      0.000000     Uiso  0.014940 Cl
   Cl         1.0     0.250000      0.000000      0.500000     Uiso  0.014940 Cl
   Cl         1.0     0.250000      0.000000      0.000000     Uiso  0.014940 Cl
   Cl         1.0     0.750000      0.500000      0.500000     Uiso  0.014940 Cl
   Cl         1.0     0.500000      0.250000      0.500000     Uiso  0.014940 Cl
   Cl         1.0     0.000000      0.750000      0.000000     Uiso  0.014940 Cl
   Cl         1.0     0.000000      0.750000      0.500000     Uiso  0.014940 Cl
   Cl         1.0     0.500000      0.250000      0.000000     Uiso  0.014940 Cl
   Cl         1.0     0.000000      0.250000      0.000000     Uiso  0.014940 Cl
   Cl         1.0     0.500000      0.750000      0.500000     Uiso  0.014940 Cl
   Cl         1.0     0.500000      0.750000      0.000000     Uiso  0.014940 Cl
   Cl         1.0     0.000000      0.250000      0.500000     Uiso  0.014940 Cl
   Cl         1.0     0.500000      0.500000      0.250000     Uiso  0.014940 Cl
   Cl         1.0     0.000000      0.000000      0.750000     Uiso  0.014940 Cl
   Cl         1.0     0.000000      0.000000      0.250000     Uiso  0.014940 Cl
   Cl         1.0     0.500000      0.500000      0.750000     Uiso  0.014940 Cl
   Cl         1.0     0.000000      0.500000      0.750000     Uiso  0.014940 Cl
   Cl         1.0     0.500000      0.000000      0.250000     Uiso  0.014940 Cl
   Cl         1.0     0.500000      0.000000      0.750000     Uiso  0.014940 Cl
   Cl         1.0     0.000000      0.500000      0.250000     Uiso  0.014940 Cl
